Version 4.1
SHEET 1 2088 680
WIRE 0 128 0 112
WIRE 1024 128 1024 112
WIRE 1856 128 1856 112
WIRE -128 224 -144 224
WIRE 0 224 0 208
WIRE 0 224 -48 224
WIRE 96 224 0 224
WIRE 896 224 880 224
WIRE 1024 224 1024 208
WIRE 1024 224 976 224
WIRE 1120 224 1024 224
WIRE 1728 224 1712 224
WIRE 1856 224 1856 208
WIRE 1856 224 1808 224
WIRE 1952 224 1856 224
WIRE 0 240 0 224
WIRE 1024 240 1024 224
WIRE 1856 240 1856 224
WIRE 0 336 0 320
WIRE 1024 336 1024 320
WIRE 1856 336 1856 320
FLAG -288 80 In10
FLAG 96 224 Out10
FLAG -288 160 0
FLAG -416 160 0
FLAG 0 336 0
FLAG 0 112 In10
FLAG 736 80 In36
FLAG 1120 224 Out36
FLAG 736 160 0
FLAG 880 224 Vref
FLAG 1024 336 0
FLAG 1024 112 In36
FLAG 1568 80 In1.1
FLAG 1952 224 Out1.1
FLAG 1568 160 0
FLAG 1712 224 Vref
FLAG 1856 336 0
FLAG 1856 112 In1.1
FLAG -144 224 Vref
FLAG -416 80 Vref
SYMBOL voltage -416 64 R0
WINDOW 123 0 0 Left 0
WINDOW 39 0 0 Left 0
SYMATTR InstName V1
SYMATTR Value 3.3
SYMBOL voltage -288 64 R0
WINDOW 123 0 0 Left 0
WINDOW 39 0 0 Left 0
SYMATTR InstName V2
SYMATTR Value 10
SYMBOL res -32 208 R90
WINDOW 0 0 56 VBottom 2
WINDOW 3 32 56 VTop 2
SYMATTR InstName R3
SYMATTR Value 240k
SYMBOL res -16 224 R0
SYMATTR InstName R2
SYMATTR Value 360k
SYMBOL res -16 112 R0
SYMATTR InstName R1
SYMATTR Value 750k
SYMBOL voltage 736 64 R0
WINDOW 123 0 0 Left 0
WINDOW 39 0 0 Left 0
SYMATTR InstName V4
SYMATTR Value 36
SYMBOL res 992 208 R90
WINDOW 0 0 56 VBottom 2
WINDOW 3 32 56 VTop 2
SYMATTR InstName R4
SYMATTR Value 82k
SYMBOL res 1008 224 R0
SYMATTR InstName R5
SYMATTR Value 91k
SYMBOL res 1008 112 R0
SYMATTR InstName R6
SYMATTR Value 910k
SYMBOL voltage 1568 64 R0
WINDOW 123 0 0 Left 0
WINDOW 39 0 0 Left 0
SYMATTR InstName V6
SYMATTR Value 1.1
SYMBOL res 1824 208 R90
WINDOW 0 0 56 VBottom 2
WINDOW 3 32 56 VTop 2
SYMATTR InstName R7
SYMATTR Value 820k
SYMBOL res 1840 224 R0
SYMATTR InstName R8
SYMATTR Value 390k
SYMBOL res 1840 112 R0
SYMATTR InstName R9
SYMATTR Value 200k
TEXT -144 408 Left 2 !.op
TEXT -288 -48 Left 2 ;[-10, 10; 0, 3,3]V
TEXT 800 -40 Left 2 ;[-36, 36; 0, 3,3]V
TEXT 1632 -40 Left 2 ;[-1, 1; 0, 1,1]V
TEXT 40 328 Left 2 ;370k
TEXT 64 152 Left 2 ;751k
TEXT -112 272 Left 2 ;248k
TEXT 1048 328 Left 2 ;92.44k
TEXT 1104 152 Left 2 ;916.03k
TEXT 904 272 Left 2 ;83.97k
TEXT 1712 280 Left 2 ;767.44k
TEXT 1920 160 Left 2 ;232.56k
TEXT 1888 328 Left 2 ;451.44k
